282
Energy =
Pd   -0.6154537    8.1918849   -4.6448785 
N     0.6339575    6.5054232   -4.6818498 
C     1.7197090    6.4311598   -3.8910172 
H     1.9591522    7.3124484   -3.3161681 
C     2.5064447    5.2951431   -3.8185028 
H     3.3683266    5.2886889   -3.1717576 
C     2.1810140    4.1746132   -4.5834546 
C     2.9632525    2.9118665   -4.4807242 
N     2.5610295    1.8636623   -5.2096567 
C     3.2782761    0.7429863   -5.0667240 
C     2.8487299   -0.4610648   -5.8299925 
C     3.5601817   -1.6590605   -5.7611202 
H     4.4776396   -1.7224088   -5.1993985 
C     3.0887217   -2.7805207   -6.4211252 
H     3.6272856   -3.7150608   -6.3866431 
N     1.9517178   -2.7677229   -7.1403101 
C     1.2836396   -1.6056849   -7.2535052 
H     0.4016675   -1.6146633   -7.8751666 
Pd    1.1984709   -4.5340910   -7.9874619 
N     0.5550071   -6.2284956   -8.8966488 
C    -0.3147130   -7.1096509   -8.3807006 
H    -0.7092432   -6.8920424   -7.4035860 
C    -0.6949828   -8.2488764   -9.0639592 
H    -1.3984157   -8.9316022   -8.6131603 
C    -0.1610881   -8.4911246  -10.3201965 
H    -0.4374219   -9.3729725  -10.8793549 
C     0.7368529   -7.5809450  -10.8528247 
H     1.1586351   -7.7583191  -11.8290654 
C     1.0894764   -6.4481871  -10.1322377 
C     2.0136853   -5.4294555  -10.5975356 
C     2.6551751   -5.4494498  -11.8283602 
H     2.4874009   -6.2623348  -12.5165669 
C     3.5141791   -4.4216190  -12.1805688 
H     4.0138157   -4.4347890  -13.1381638 
C     3.7164660   -3.3814250  -11.2865857 
C     3.0577295   -3.4021913  -10.0721145 
H     3.1903823   -2.6096526   -9.3562538 
H     4.3753648   -2.5601958  -11.5225687 
N     0.0655013   -4.7831472   -6.2397748 
C     0.5575947   -5.4516556   -5.1816950 
H     1.5306104   -5.9016377   -5.3051461 
C    -0.1412795   -5.5741351   -3.9940541 
H     0.2982214   -6.1164331   -3.1738558 
C    -1.4004208   -4.9907439   -3.8662196 
C    -2.1405013   -5.0257820   -2.5781058 
N    -3.3133558   -4.3835932   -2.5102042 
C    -3.9044217   -4.3725844   -1.3114332 
C    -5.1995777   -3.6499543   -1.1760038 
C    -5.7886008   -3.0004659   -2.2613431 
H    -5.3401185   -3.0482076   -3.2400718 
C    -6.9656502   -2.2938262   -2.0864659 
H    -7.4444691   -1.7945529   -2.9147924 
N    -7.5800224   -2.2031023   -0.8928153 
C    -7.0407050   -2.8558282    0.1525892 
H    -7.5788600   -2.7994629    1.0862666 
Pd   -9.2896692   -1.0108439   -0.6443474 
N   -10.6339865   -2.4592588   -1.1000829 
C   -11.9372483   -2.0597136   -1.0528395 
C   -12.9531702   -2.9586872   -1.3472964 
C   -12.6467198   -4.2654657   -1.6887535 
C   -11.3161817   -4.6528030   -1.7297394 
H   -11.0344423   -5.6612221   -1.9903209 
H   -13.4356776   -4.9666892   -1.9180402 
H   -13.9842419   -2.6455635   -1.3120546 
C   -12.1462427   -0.6718722   -0.6809267 
C   -13.3893536   -0.0645569   -0.5689519 
H   -14.2887983   -0.6262041   -0.7637252 
C   -13.4806255    1.2686724   -0.2048639 
C   -12.3147646    1.9768041    0.0428710 
H   -12.3415094    3.0167037    0.3292493 
C   -11.0984188    1.3326651   -0.0804621 
H   -10.1745942    1.8526690    0.1045035 
H   -14.4468990    1.7432572   -0.1167131 
C   -10.3370000   -3.7249940   -1.4301820 
H    -9.2949391   -3.9926323   -1.4524062 
N    -7.9948793    0.5671579   -0.1551827 
C    -7.5926995    0.7613565    1.1138561 
H    -8.0389794    0.1268329    1.8640456 
C    -6.6655795    1.7298112    1.4566296 
H    -6.3803607    1.8475452    2.4890386 
C    -6.1145826    2.5453248    0.4677792 
C    -5.0606187    3.5478648    0.7864965 
N    -4.6534803    3.6485437    2.0574626 
C    -3.6754830    4.5325368    2.2898990 
C    -3.1570973    4.6494663    3.6809078 
C    -2.1116585    5.5178852    3.9965239 
C    -1.6083499    5.5510745    5.2851328 
H    -0.8075065    6.2228610    5.5534392 
N    -2.0918480    4.7685870    6.2669560 
C    -3.1272332    3.9574438    5.9842310 
H    -3.5215682    3.3750495    6.8026764 
Pd   -1.2053736    4.7538573    8.1692358 
N    -0.4310555    4.8280911   10.0420182 
C     0.5839967    4.0793720   10.4982528 
H     1.0243075    3.3801688    9.8088329 
C     1.0529547    4.1923131   11.7931198 
H     1.8728843    3.5718205   12.1199665 
C     0.4563327    5.1056036   12.6486304 
H     0.7993821    5.2176810   13.6666659 
C    -0.5918906    5.8784855   12.1772880 
H    -1.0635252    6.5926063   12.8329999 
C    -1.0297416    5.7333780   10.8680835 
C    -2.1120275    6.4953448   10.2709767 
C    -2.8500977    7.4677966   10.9315070 
H    -2.6407706    7.7029648   11.9626230 
C    -3.8609077    8.1430739   10.2675913 
H    -4.4357835    8.9006759   10.7796825 
C    -4.1174627    7.8299293    8.9415883 
C    -3.3590333    6.8543884    8.3231677 
H    -3.5315599    6.5869143    7.2952319 
H    -4.8948802    8.3325423    8.3874389 
N     0.0682072    3.2451830    7.4590913 
C    -0.2758405    1.9485258    7.5609923 
H    -1.1873894    1.7313593    8.0962067 
C     0.4963467    0.9337407    7.0239662 
H     0.1787440   -0.0896281    7.1374488 
C     1.6771352    1.2425158    6.3482743 
C     2.4964505    0.1842142    5.6962460 
N     3.6043119    0.5604962    5.0462276 
C     4.2883443   -0.4181847    4.4418457 
C     5.5031276   -0.0453101    3.6664575 
C     5.9343230    1.2787509    3.5820725 
C     7.0284302    1.5980434    2.7974092 
H     7.3860577    2.6137340    2.7262317 
N     7.7077631    0.6704977    2.0987896 
C     7.3256394   -0.6149428    2.2046517 
H     7.9167824   -1.3402812    1.6670308 
Pd    9.2762357    1.2235746    0.8213122 
N    10.7472935    1.0633710    2.2074065 
C    10.5789774    0.6915648    3.4850816 
H     9.5759953    0.4601785    3.7987440 
C    11.6380517    0.6051437    4.3682350 
H    11.4590301    0.3013304    5.3879343 
C    12.9142670    0.9121752    3.9220299 
H    13.7630252    0.8546320    4.5876167 
C    13.0879524    1.2952163    2.6023375 
H    14.0759061    1.5350112    2.2434105 
C    11.9953337    1.3679118    1.7491895 
C    12.0645061    1.7515640    0.3504285 
C    13.2317183    2.1005534   -0.3146629 
H    14.1752732    2.1035018    0.2068864 
C    13.1900142    2.4469963   -1.6551239 
H    14.0970712    2.7188671   -2.1748450 
C    11.9691948    2.4370875   -2.3121609 
C    10.8318605    2.0845816   -1.6109141 
H     9.8684850    2.0668629   -2.0900994 
H    11.8928345    2.6987546   -3.3561058 
N    10.8724542    1.7501495   -0.3126635 
N     7.8407188    1.4197581   -0.6978539 
C     7.5007922    0.3676924   -1.4643439 
H     8.0627959   -0.5409696   -1.3130258 
C     6.4942804    0.4359974   -2.4114220 
H     6.2636074   -0.4349781   -3.0024592 
C     5.7929393    1.6279635   -2.5952155 
C     4.6579975    1.7204727   -3.5545652 
C     6.1826194    2.7231851   -1.8236832 
H     5.7034485    3.6805420   -1.9456018 
C     7.1984261    2.5854123   -0.8942002 
H     7.5219251    3.4218675   -0.2939592 
H     5.4270108    2.0588696    4.1254191 
C     6.2414672   -1.0033336    2.9712015 
H     5.9789488   -2.0468238    3.0267798 
N     3.9250702   -1.7062218    4.4550622 
C     2.8044662   -1.9907368    5.1289715 
C     2.3356439   -3.4038539    5.1342995 
C     3.0497073   -4.4074280    4.4789277 
C     2.5517945   -5.6978314    4.4452057 
H     3.0928836   -6.4916140    3.9536316 
N     1.3868322   -6.0348764    5.0275260 
C     0.7104216   -5.0845665    5.6976216 
H    -0.1976486   -5.3954021    6.1908349 
Pd    0.6023930   -7.9692904    4.8181438 
N     1.4889076   -8.7482832    6.4670489 
C     1.2073861  -10.0631278    6.6961615 
C     1.7548793  -10.7124006    7.7940673 
H     1.5346354  -11.7518220    7.9775332 
C     2.5893996  -10.0265820    8.6610710 
H     3.0167318  -10.5294976    9.5161274 
C     2.8638536   -8.6908562    8.4108729 
H     3.5089375   -8.1205990    9.0610661 
C     0.3241134  -10.6848103    5.7259537 
C    -0.0911681  -12.0085648    5.7716118 
H     0.2408641  -12.6562998    6.5669838 
C    -0.9364548  -12.5050025    4.7930587 
H    -1.2612807  -13.5346011    4.8265013 
C    -1.3546457  -11.6598091    3.7767320 
H    -2.0124761  -12.0067342    2.9950719 
C    -0.9173112  -10.3491142    3.7705457 
H    -1.2225368   -9.6663692    2.9968050 
C     2.2973783   -8.0840470    7.3061724 
H     2.4895855   -7.0490278    7.0828593 
N    -0.0990876   -9.8685703    4.7183900 
N    -0.3680969   -7.2794090    3.0892297 
C     0.2405896   -7.3236162    1.8901177 
H     1.2078752   -7.8009096    1.8578122 
C    -0.3385107   -6.8032541    0.7459710 
H     0.1873069   -6.8687955   -0.1923683 
C    -1.5979175   -6.2067510    0.8141460 
C    -2.2338546   -6.1992455    2.0558750 
H    -3.2219178   -5.7835739    2.1649565 
C    -2.2250601   -5.5809364   -0.3823118 
C    -1.5977769   -6.7382460    3.1601029 
H    -2.0774673   -6.7552037    4.1266464 
H     3.9905442   -4.1905349    4.0005633 
C     1.1510563   -3.7748552    5.7709011 
H     0.5739771   -3.0524845    6.3243663 
N     2.0567608   -1.0784424    5.7612552 
C     2.0443006    2.5870335    6.2857741 
H     2.9633643    2.8847899    5.8086205 
C     1.2254310    3.5517928    6.8453281 
H     1.4954120    4.5962975    6.8177643 
N    -2.3804209    6.2005079    8.9665874 
H    -1.6918406    6.1691137    3.2476745 
C    -3.6778242    3.8743258    4.7175006 
H    -4.5098731    3.2118646    4.5447708 
N    -3.1046892    5.2863781    1.3425460 
C    -3.5740184    5.1188204    0.1003537 
C    -2.9395341    5.9000300   -0.9971308 
C    -3.3496185    5.7546846   -2.3227747 
H    -4.1769729    5.1123728   -2.5756800 
C    -2.6937837    6.4447916   -3.3268675 
H    -3.0014439    6.3555068   -4.3573918 
C    -1.8917711    6.7865118   -0.7466657 
H    -1.5540150    6.9692101    0.2600939 
C    -1.2799705    7.4453624   -1.7985396 
H    -0.4752155    8.1434537   -1.6263583 
N    -4.5484048    4.2604794   -0.2240651 
C    -6.5718897    2.3630106   -0.8376138 
H    -6.2119097    2.9871233   -1.6387772 
C    -7.5016363    1.3753233   -1.1109343 
H    -7.8757345    1.2235697   -2.1117473 
N   -11.0103894    0.0414558   -0.4329353 
C    -5.8662984   -3.5795403    0.0475019 
H    -5.4795175   -4.0897135    0.9141796 
N    -3.3870461   -4.9383901   -0.2139415 
N    -1.5716210   -5.6582419   -1.5455602 
C    -1.9167492   -4.3340777   -4.9826147 
H    -2.8978967   -3.8899647   -4.9542283 
C    -1.1659991   -4.2494642   -6.1406033 
H    -1.5517356   -3.7583409   -7.0207472 
N     2.2276577   -4.3987911   -9.7302794 
C     1.6994092   -0.4475262   -6.6206991 
H     1.1292148    0.4582746   -6.7458634 
N     4.3320123    0.6242685   -4.2504187 
N     4.0023637    2.8843067   -3.6378902 
C     1.0783383    4.2792702   -5.4317266 
H     0.7997195    3.4614805   -6.0756091 
C     0.3348727    5.4460216   -5.4553060 
H    -0.5155484    5.5520099   -6.1111959 
N    -1.6580726    7.2662633   -3.0771266 
N    -1.7642470    9.8617533   -4.7084545 
C    -2.8189649   10.1154064   -3.9195312 
H    -3.0706561    9.3702609   -3.1852072 
C    -3.5565908   11.2781371   -4.0345376 
H    -4.3979750   11.4434566   -3.3797148 
C    -3.1974406   12.2119393   -4.9942874 
H    -3.7540474   13.1302338   -5.1102431 
C    -2.1075820   11.9503320   -5.8079170 
H    -1.8179858   12.6692243   -6.5573312 
C    -1.3941032   10.7692479   -5.6571277 
C    -0.2377054   10.3971034   -6.4522990 
C     0.3106276   11.1786723   -7.4597837 
C     1.4205756   10.7330429   -8.1580557 
C     1.9670399    9.5012796   -7.8322234 
C     1.3888894    8.7557923   -6.8225459 
H     1.7882325    7.7958805   -6.5444307 
H     2.8318463    9.1177494   -8.3510542 
H     1.8491402   11.3400865   -8.9419793 
H    -0.1227768   12.1353550   -7.7033247 
N     0.3139176    9.1877500   -6.1465685 
C     0.1780392   -1.8775905   -3.2903429 
C     1.2753675   -2.6072715   -2.8545529 
C     1.2930275   -3.1387619   -1.5717781 
C     0.2155246   -2.9309327   -0.7215187 
C    -0.8816719   -2.1993620   -1.1559019 
C    -0.9035155   -1.6781996   -2.4427609 
H     2.1143222   -2.7679125   -3.5155354 
H     2.1450193   -3.7143137   -1.2377871 
H     0.2294607   -3.3438282    0.2778104 
H    -1.7221643   -2.0410393   -0.4937468 
H    -1.7627334   -1.1188898   -2.7860788 
H     0.1614462   -1.4712275   -4.2914412 
