256
Energy =
C    -2.9702337   -1.8115745    6.0410877 
H    -2.5427166   -1.5148247    5.0893326 
C    -3.9927208   -2.5188011    8.3150868 
H    -4.4214955   -2.8134658    9.2682163 
C    -2.8620316   -0.7254606    7.0967288 
C    -2.3619971    0.5326854    6.9148867 
H    -1.9486048    0.8492194    5.9678320 
C    -2.4451230    1.4768209    7.9631048 
N    -2.0416079    2.7495919    7.7354569 
C    -2.2228430    3.6910510    8.6602224 
C    -2.7318578    3.3566929    9.9414338 
H    -2.7946705    4.1091352   10.7102909 
C    -3.1103806    2.0738644   10.2066195 
C    -3.0156406    1.0852139    9.2091965 
C    -3.4836685   -0.2337481    9.3791912 
H    -3.9242931   -0.5212373   10.3255671 
C    -3.4206154   -1.1158296    8.3396807 
C    -4.4628281   -2.0993069    5.9545741 
C    -5.2682737   -1.9304759    4.8615027 
H    -4.8722715   -1.6120440    3.9075671 
C    -6.6683489   -2.0997197    4.9862099 
N    -7.4710501   -1.8098963    3.9316779 
C    -8.7961078   -1.8412124    4.0697319 
C    -9.3940042   -2.3039914    5.2690470 
H   -10.4638536   -2.4168213    5.3294071 
C    -8.6076706   -2.6321163    6.3317774 
C    -7.2103505   -2.4986675    6.2433007 
C    -6.3527113   -2.7001413    7.3407616 
H    -6.7734780   -2.9823434    8.2975803 
C    -5.0140270   -2.4830654    7.2029217 
C    -2.3031900   -3.0386317    6.6321871 
C    -1.2279912   -3.7093755    6.1211727 
H    -0.7350284   -3.3985417    5.2111204 
C    -0.7189486   -4.8470840    6.7952556 
N     0.3967690   -5.4430034    6.3127904 
C     0.8444717   -6.5372151    6.9050287 
C     0.1453533   -7.1421649    7.9856448 
H     0.4739474   -8.0933069    8.3743769 
C    -0.9395720   -6.5171903    8.5244352 
C    -1.3935162   -5.3101719    7.9657649 
C    -2.4666622   -4.5676391    8.4970445 
H    -2.9410747   -4.8983141    9.4129151 
C    -2.8913856   -3.4413172    7.8562814 
C     2.6486450    5.8663705    0.4019407 
H     2.1876480    4.8876596    0.3260116 
C     3.7533361    8.2037822    0.5835998 
H     4.2171185    9.1828205    0.6596176 
C     2.3262081    6.5711110    1.7096445 
C     1.5122958    6.1162324    2.7085279 
H     0.9843997    5.1761345    2.6352668 
C     1.3419222    6.8826131    3.8892064 
N     0.4870922    6.4345331    4.8392821 
C     0.3751185    7.1096543    5.9712152 
C     1.1632883    8.2619460    6.2363228 
H     1.1201384    8.7335239    7.2057047 
C     1.9791272    8.7620426    5.2646366 
C     2.0766512    8.0994749    4.0297208 
C     2.8686526    8.5682601    2.9621344 
H     3.3905074    9.5122430    3.0615661 
C     2.9725149    7.8285876    1.8217017 
O    -0.4084004    4.3830494    6.5469210 
H    -0.9073959    3.5498163    6.7775027 
C    -0.9703760    5.3613497    7.2554278 
C    -1.8827291    5.0703825    8.3087242 
C    -2.4831498    6.1260891    8.9982780 
H    -3.2239688    5.9126103    9.7541707 
C    -2.1933324    7.4386310    8.6949629 
C    -1.2610101    7.7109726    7.7085710 
H    -1.0518944    8.7402459    7.4573042 
C    -0.6230214    6.7058513    6.9838970 
O    -7.8853159   -1.7733762    1.3486185 
H    -7.4149487   -1.8350801    2.2257233 
C    -9.1298080   -1.3785166    1.6180882 
C    -9.6210622   -1.3795415    2.9521661 
C   -10.9105908   -0.9067365    3.2036554 
H   -11.2605431   -0.8395514    4.2227343 
C   -11.7268793   -0.4684425    2.1835885 
C   -11.2654022   -0.5338766    0.8813098 
H   -11.8969250   -0.1699366    0.0845526 
C    -9.9881795   -0.9936928    0.5616028 
C    -5.1062224    0.0427078   -4.8861244 
H    -4.3132776    0.0384421   -4.1460221 
C    -6.9989914    0.0528698   -6.6565083 
H    -7.7912579    0.0581478   -7.3989575 
C    -5.2203812    1.3693545   -5.6161339 
C    -4.4002111    2.4510238   -5.4620539 
H    -3.5943286    2.4558226   -4.7420462 
C    -4.5541752    3.5721802   -6.3085669 
N    -3.6690273    4.5933570   -6.2155508 
C    -3.7118386    5.6054475   -7.0807339 
C    -4.7537021    5.6921040   -8.0397272 
H    -4.8286276    6.5567236   -8.6784982 
C    -5.6781761    4.6936871   -8.1281888 
C    -5.5924286    3.5698283   -7.2850894 
C    -6.4494670    2.4553157   -7.3904828 
H    -7.2297002    2.4566499   -8.1412462 
C    -6.2577470    1.3723784   -6.5821895 
C    -4.8826847   -0.9743765   -5.9969739 
C    -3.7841638   -1.7714057   -6.1694778 
H    -2.9691201   -1.7773745   -5.4595994 
C    -3.6620410   -2.5572228   -7.3407480 
N    -2.5163547   -3.2489086   -7.5619775 
C    -2.3324050   -3.8902265   -8.7155445 
C    -3.3716948   -3.9761482   -9.6760356 
H    -3.2411589   -4.5793209  -10.5592784 
C    -4.5444064   -3.3169975   -9.4617739 
C    -4.7170993   -2.5434173   -8.2998065 
C    -5.8520117   -1.7415137   -8.0770730 
H    -6.6399906   -1.7200383   -8.8192688 
C    -5.9208223   -0.9599662   -6.9622656 
C    -6.4737883   -0.2289100   -4.2893720 
C    -6.7682552   -0.3996688   -2.9659475 
H    -6.0119960   -0.3420652   -2.1961581 
C    -8.1036660   -0.6535944   -2.5656438 
N    -8.3814357   -0.7382850   -1.2430947 
C    -9.6147343   -1.0308948   -0.8663847 
C   -10.6347873   -1.3288495   -1.8113603 
H   -11.5996194   -1.6715290   -1.4716182 
C   -10.3874762   -1.1816009   -3.1435998 
C    -9.1063526   -0.7953745   -3.5727906 
C    -8.7820193   -0.5621127   -4.9239600 
H    -9.5589028   -0.6237995   -5.6762062 
C    -7.4977629   -0.2586783   -5.2677325 
C     2.2094165    6.8137317   -0.7025759 
C     1.3700387    6.5288092   -1.7422969 
H     0.9473066    5.5446775   -1.8856013 
C     1.0258029    7.5409728   -2.6733844 
N     0.2342206    7.2177362   -3.7233005 
C    -0.1469551    8.1713068   -4.5566812 
C     0.2105772    9.5312459   -4.3517820 
H    -0.1957540   10.2983060   -4.9925318 
C     1.0606341    9.8618623   -3.3378173 
C     1.5289343    8.8620576   -2.4690138 
C     2.4350261    9.1129981   -1.4188098 
H     2.8443611   10.1083205   -1.2957542 
C     2.7806838    8.1047976   -0.5687731 
O    -2.1236509    6.0647785   -4.7350177 
H    -2.7100138    5.3127952   -5.0305946 
C    -1.8987997    6.8087386   -5.8169782 
C    -2.6540189    6.6143884   -7.0079282 
C    -2.3571079    7.3857532   -8.1337243 
H    -2.8821680    7.1988220   -9.0583724 
C    -1.3667715    8.3434898   -8.1069808 
C    -0.6774603    8.5657154   -6.9272186 
H     0.1131658    9.3012301   -6.9145761 
C    -0.9246340    7.8339022   -5.7672727 
O    -0.4980833   -4.6273737   -6.6345301 
H    -1.2915163   -4.0238359   -6.6646935 
C    -0.1576460   -4.8612648   -7.9019885 
C    -1.0261130   -4.5002705   -8.9682634 
C    -0.6120569   -4.7111974  -10.2849852 
H    -1.2381794   -4.3743138  -11.0973527 
C     0.6060730   -5.2882400  -10.5717128 
C     1.4158496   -5.6972632   -9.5274583 
H     2.3796707   -6.1294535   -9.7518909 
C     1.0627175   -5.5153133   -8.1906656 
C     4.6294355   -4.7529145   -1.7618705 
H     3.9020450   -4.0029813   -1.4706462 
C     6.3690826   -6.5447418   -2.4558421 
H     7.0992257   -7.2941982   -2.7457394 
C     6.0378913   -4.1937736   -1.8668271 
C     6.4282673   -2.9188654   -1.5678760 
H     5.7223515   -2.1609416   -1.2585272 
C     7.8028030   -2.5890501   -1.5872197 
N     8.1872767   -1.3538228   -1.1873504 
C     9.4790576   -1.0580008   -1.0638508 
C    10.4781990   -1.9812144   -1.4597801 
H    11.5176784   -1.6973770   -1.4300499 
C    10.1144129   -3.2169906   -1.9086986 
C     8.7564879   -3.5832398   -1.9547043 
C     8.3158066   -4.8760351   -2.3034837 
H     9.0449000   -5.6294458   -2.5742018 
C     6.9862921   -5.1772759   -2.2467909 
C     4.7528332   -5.8829121   -0.7475023 
C     4.1270176   -5.9689696    0.4664734 
H     3.4168939   -5.2227020    0.7936315 
C     4.4634781   -7.0152523    1.3595425 
N     3.9286044   -7.0260065    2.6064569 
C     4.3298816   -7.9296595    3.5000793 
C     5.2179521   -8.9727712    3.1356429 
H     5.4558327   -9.7499879    3.8429751 
C     5.7428633   -9.0029773    1.8791337 
C     5.4164156   -7.9953287    0.9538808 
C     6.0172395   -7.9007989   -0.3150585 
H     6.7550178   -8.6368883   -0.6085307 
C     5.7075578   -6.8566790   -1.1347661 
C     4.3246071   -5.3820703   -3.1084692 
C     3.3064947   -5.0467206   -3.9565371 
H     2.6050362   -4.2567972   -3.7288434 
C     3.1518800   -5.7377568   -5.1843981 
N     2.1867428   -5.3318410   -6.0434595 
C     2.0029445   -6.0087232   -7.1646172 
C     2.7391099   -7.1903614   -7.4548390 
H     2.4884181   -7.7812215   -8.3219025 
C     3.7582899   -7.5713744   -6.6340819 
C     4.0308246   -6.8255282   -5.4747222 
C     5.1027270   -7.1124443   -4.6067081 
H     5.7945868   -7.9065347   -4.8596947 
C     5.2588530   -6.3861178   -3.4632960 
C     4.1649844    5.8088455    0.3211014 
C     4.9345806    4.6844242    0.2125688 
H     4.5024691    3.6934652    0.2061146 
C     6.3438957    4.8049110    0.1132642 
N     7.1012267    3.6788470    0.0606068 
C     8.4148682    3.7859637   -0.0787716 
C     9.0459318    5.0470704   -0.2313833 
H    10.1040846    5.0951562   -0.4349216 
C     8.3099519    6.1903618   -0.1289383 
C     6.9241056    6.1098662    0.0805555 
C     6.1060064    7.2464539    0.2390343 
H     6.5599229    8.2296653    0.2486191 
C     4.7586687    7.0955083    0.3758092 
O     7.7233176    1.2035389   -1.1502731 
H     7.5605602    0.2226916   -1.2430767 
C     8.9109816    1.3347033   -0.5567144 
C     9.8221999    0.2469542   -0.4956037 
C    11.0465888    0.4245926    0.1496955 
H    11.7187154   -0.4146425    0.2501922 
C    11.3907655    1.6348849    0.7148203 
C    10.5127951    2.6998741    0.6147466 
H    10.7705538    3.6378030    1.0840568 
C     9.2753524    2.5873732   -0.0180878 
O     1.9028635   -6.5683263    4.1985511 
H     2.4898674   -6.5485669    3.3928400 
C     2.6139859   -7.1468757    5.1663803 
C     3.8321247   -7.8178626    4.8722093 
C     4.5789653   -8.3639424    5.9178887 
H     5.5381132   -8.8118609    5.7059664 
C     4.1454019   -8.2928816    7.2241146 
C     2.9262912   -7.6977023    7.4937690 
H     2.5973060   -7.6228737    8.5195300 
C     2.1322913   -7.1320161    6.4964711 
H   -12.7080952   -0.0708053    2.3973199 
H    -9.0478591   -2.9871353    7.2545580 
H   -11.1614000   -1.3720849   -3.8761793 
H     0.9287360   -5.4109158  -11.5951104 
H     4.3517642   -8.4490145   -6.8562794 
H    -5.3479930   -3.3724219  -10.1845895 
H    10.8653820   -3.9300094   -2.2232126 
H     6.4211357   -9.7928787    1.5836164 
H     4.7515327   -8.6870455    8.0264748 
H    -1.4645530   -6.9458222    9.3685816 
H    12.3273325    1.7474483    1.2407682 
H     8.7791809    7.1615621   -0.2208303 
H    -3.4939520    1.8056055   11.1825100 
H    -2.6937127    8.2444949    9.2114732 
H     2.5674472    9.6538337    5.4393370 
H     1.3646854   10.8891693   -3.1819250 
H    -1.1234631    8.9060685   -8.9963304 
H    -6.4810190    4.7520554   -8.8516951 
C     5.5440947    1.1588973    1.8538065 
H     5.6392561    2.0943075    2.4160988 
O     5.2484585    1.3814000    0.4896193 
H     6.4689137    0.5865025    1.9895902 
H     4.7248443    0.5861733    2.2848252 
H     5.9695629    1.9400225    0.1439341 

